Test_Network/network_5/Loads.txt
New Load.LOAD11 Phases=1 Bus1=155.1 kV=0.23 kW=1 PF=0.95
New Load.LOAD12 Phases=1 Bus1=187.1 kV=0.23 kW=1 PF=0.95
New Load.LOAD13 Phases=1 Bus1=199.3 kV=0.23 kW=1 PF=0.95
New Load.LOAD14 Phases=1 Bus1=1130.3 kV=0.23 kW=1 PF=0.95
New Load.LOAD21 Phases=1 Bus1=245.1 kV=0.23 kW=1 PF=0.95
New Load.LOAD22 Phases=1 Bus1=256.3 kV=0.23 kW=1 PF=0.95
New Load.LOAD23 Phases=1 Bus1=257.3 kV=0.23 kW=1 PF=0.95
New Load.LOAD24 Phases=1 Bus1=273.1 kV=0.23 kW=1 PF=0.95
New Load.LOAD25 Phases=1 Bus1=274.1 kV=0.23 kW=1 PF=0.95
New Load.LOAD26 Phases=1 Bus1=2102.2 kV=0.23 kW=1 PF=0.95
New Load.LOAD27 Phases=1 Bus1=2107.3 kV=0.23 kW=1 PF=0.95
New Load.LOAD28 Phases=1 Bus1=2120.3 kV=0.23 kW=1 PF=0.95
New Load.LOAD29 Phases=1 Bus1=2138.3 kV=0.23 kW=1 PF=0.95
New Load.LOAD210 Phases=1 Bus1=2142.3 kV=0.23 kW=1 PF=0.95
New Load.LOAD211 Phases=1 Bus1=2145.2 kV=0.23 kW=1 PF=0.95
New Load.LOAD212 Phases=1 Bus1=2149.3 kV=0.23 kW=1 PF=0.95
New Load.LOAD213 Phases=1 Bus1=2153.2 kV=0.23 kW=1 PF=0.95
New Load.LOAD214 Phases=1 Bus1=2157.2 kV=0.23 kW=1 PF=0.95
New Load.LOAD215 Phases=1 Bus1=2179.3 kV=0.23 kW=1 PF=0.95
New Load.LOAD216 Phases=1 Bus1=2184.1 kV=0.23 kW=1 PF=0.95
New Load.LOAD217 Phases=1 Bus1=2188.2 kV=0.23 kW=1 PF=0.95
New Load.LOAD218 Phases=1 Bus1=2193.3 kV=0.23 kW=1 PF=0.95
New Load.LOAD31 Phases=1 Bus1=369.2 kV=0.23 kW=1 PF=0.95
New Load.LOAD32 Phases=1 Bus1=375.1 kV=0.23 kW=1 PF=0.95
New Load.LOAD33 Phases=1 Bus1=387.2 kV=0.23 kW=1 PF=0.95
New Load.LOAD34 Phases=1 Bus1=391.1 kV=0.23 kW=1 PF=0.95
New Load.LOAD35 Phases=1 Bus1=3119.1 kV=0.23 kW=1 PF=0.95
New Load.LOAD36 Phases=1 Bus1=3151.1 kV=0.23 kW=1 PF=0.95
New Load.LOAD37 Phases=1 Bus1=3194.1 kV=0.23 kW=1 PF=0.95
New Load.LOAD38 Phases=1 Bus1=3211.3 kV=0.23 kW=1 PF=0.95
New Load.LOAD39 Phases=1 Bus1=3226.2 kV=0.23 kW=1 PF=0.95
New Load.LOAD310 Phases=1 Bus1=3251.3 kV=0.23 kW=1 PF=0.95
New Load.LOAD311 Phases=1 Bus1=3265.3 kV=0.23 kW=1 PF=0.95
New Load.LOAD312 Phases=1 Bus1=3273.2 kV=0.23 kW=1 PF=0.95
New Load.LOAD313 Phases=1 Bus1=3319.2 kV=0.23 kW=1 PF=0.95
New Load.LOAD314 Phases=1 Bus1=3326.1 kV=0.23 kW=1 PF=0.95
New Load.LOAD315 Phases=1 Bus1=3356.2 kV=0.23 kW=1 PF=0.95
New Load.LOAD316 Phases=1 Bus1=3361.1 kV=0.23 kW=1 PF=0.95
New Load.LOAD317 Phases=1 Bus1=3370.2 kV=0.23 kW=1 PF=0.95
New Load.LOAD318 Phases=1 Bus1=3390.3 kV=0.23 kW=1 PF=0.95
New Load.LOAD319 Phases=1 Bus1=3395.3 kV=0.23 kW=1 PF=0.95
New Load.LOAD320 Phases=1 Bus1=3410.3 kV=0.23 kW=1 PF=0.95
New Load.LOAD321 Phases=1 Bus1=3434.2 kV=0.23 kW=1 PF=0.95
New Load.LOAD322 Phases=1 Bus1=3438.3 kV=0.23 kW=1 PF=0.95
New Load.LOAD323 Phases=1 Bus1=3455.1 kV=0.23 kW=1 PF=0.95
New Load.LOAD324 Phases=1 Bus1=3502.3 kV=0.23 kW=1 PF=0.95
New Load.LOAD325 Phases=1 Bus1=3511.2 kV=0.23 kW=1 PF=0.95
New Load.LOAD326 Phases=1 Bus1=3531.2 kV=0.23 kW=1 PF=0.95
New Load.LOAD327 Phases=1 Bus1=3553.1 kV=0.23 kW=1 PF=0.95
New Load.LOAD328 Phases=1 Bus1=3555.3 kV=0.23 kW=1 PF=0.95
New Load.LOAD329 Phases=1 Bus1=3571.3 kV=0.23 kW=1 PF=0.95
New Load.LOAD330 Phases=1 Bus1=3579.3 kV=0.23 kW=1 PF=0.95
New Load.LOAD331 Phases=1 Bus1=3581.1 kV=0.23 kW=1 PF=0.95
New Load.LOAD332 Phases=1 Bus1=3622.3 kV=0.23 kW=1 PF=0.95
New Load.LOAD333 Phases=1 Bus1=3692.1 kV=0.23 kW=1 PF=0.95
New Load.LOAD334 Phases=1 Bus1=3694.2 kV=0.23 kW=1 PF=0.95
New Load.LOAD335 Phases=1 Bus1=3722.2 kV=0.23 kW=1 PF=0.95
New Load.LOAD336 Phases=1 Bus1=3749.3 kV=0.23 kW=1 PF=0.95
New Load.LOAD337 Phases=1 Bus1=3773.2 kV=0.23 kW=1 PF=0.95
New Load.LOAD338 Phases=1 Bus1=3778.1 kV=0.23 kW=1 PF=0.95
New Load.LOAD339 Phases=1 Bus1=3780.3 kV=0.23 kW=1 PF=0.95
New Load.LOAD340 Phases=1 Bus1=3805.3 kV=0.23 kW=1 PF=0.95
New Load.LOAD341 Phases=1 Bus1=3809.2 kV=0.23 kW=1 PF=0.95
New Load.LOAD342 Phases=1 Bus1=3842.2 kV=0.23 kW=1 PF=0.95
New Load.LOAD343 Phases=1 Bus1=3871.3 kV=0.23 kW=1 PF=0.95
New Load.LOAD344 Phases=1 Bus1=3922.1 kV=0.23 kW=1 PF=0.95
New Load.LOAD345 Phases=1 Bus1=3943.3 kV=0.23 kW=1 PF=0.95
New Load.LOAD346 Phases=1 Bus1=3957.1 kV=0.23 kW=1 PF=0.95
New Load.LOAD347 Phases=1 Bus1=3967.1 kV=0.23 kW=1 PF=0.95
New Load.LOAD348 Phases=1 Bus1=3977.3 kV=0.23 kW=1 PF=0.95
New Load.LOAD349 Phases=1 Bus1=3980.2 kV=0.23 kW=1 PF=0.95
New Load.LOAD350 Phases=1 Bus1=31001.3 kV=0.23 kW=1 PF=0.95
New Load.LOAD351 Phases=1 Bus1=31011.2 kV=0.23 kW=1 PF=0.95
New Load.LOAD352 Phases=1 Bus1=31030.1 kV=0.23 kW=1 PF=0.95
New Load.LOAD353 Phases=1 Bus1=31047.2 kV=0.23 kW=1 PF=0.95
New Load.LOAD354 Phases=1 Bus1=31064.3 kV=0.23 kW=1 PF=0.95
New Load.LOAD355 Phases=1 Bus1=31076.2 kV=0.23 kW=1 PF=0.95
New Load.LOAD356 Phases=1 Bus1=31085.1 kV=0.23 kW=1 PF=0.95
New Load.LOAD357 Phases=1 Bus1=31089.2 kV=0.23 kW=1 PF=0.95
New Load.LOAD358 Phases=1 Bus1=31092.1 kV=0.23 kW=1 PF=0.95
New Load.LOAD359 Phases=1 Bus1=31093.2 kV=0.23 kW=1 PF=0.95
New Load.LOAD360 Phases=1 Bus1=31115.1 kV=0.23 kW=1 PF=0.95
New Load.LOAD361 Phases=1 Bus1=31118.3 kV=0.23 kW=1 PF=0.95
New Load.LOAD362 Phases=1 Bus1=31146.3 kV=0.23 kW=1 PF=0.95
New Load.LOAD363 Phases=1 Bus1=31155.1 kV=0.23 kW=1 PF=0.95
New Load.LOAD364 Phases=1 Bus1=31157.1 kV=0.23 kW=1 PF=0.95
New Load.LOAD365 Phases=1 Bus1=31158.2 kV=0.23 kW=1 PF=0.95
New Load.LOAD366 Phases=1 Bus1=31167.1 kV=0.23 kW=1 PF=0.95
New Load.LOAD367 Phases=1 Bus1=31172.2 kV=0.23 kW=1 PF=0.95
New Load.LOAD368 Phases=1 Bus1=31181.3 kV=0.23 kW=1 PF=0.95
New Load.LOAD369 Phases=1 Bus1=31183.2 kV=0.23 kW=1 PF=0.95
New Load.LOAD370 Phases=1 Bus1=31195.2 kV=0.23 kW=1 PF=0.95
New Load.LOAD371 Phases=1 Bus1=31206.1 kV=0.23 kW=1 PF=0.95
New Load.LOAD372 Phases=1 Bus1=31215.2 kV=0.23 kW=1 PF=0.95
New Load.LOAD373 Phases=1 Bus1=31216.1 kV=0.23 kW=1 PF=0.95
New Load.LOAD374 Phases=1 Bus1=31234.2 kV=0.23 kW=1 PF=0.95
New Load.LOAD375 Phases=1 Bus1=31248.1 kV=0.23 kW=1 PF=0.95
New Load.LOAD376 Phases=1 Bus1=31250.1 kV=0.23 kW=1 PF=0.95
New Load.LOAD377 Phases=1 Bus1=31269.1 kV=0.23 kW=1 PF=0.95
New Load.LOAD378 Phases=1 Bus1=31282.1 kV=0.23 kW=1 PF=0.95
New Load.LOAD379 Phases=1 Bus1=31302.3 kV=0.23 kW=1 PF=0.95
New Load.LOAD380 Phases=1 Bus1=31310.2 kV=0.23 kW=1 PF=0.95
New Load.LOAD381 Phases=1 Bus1=31346.1 kV=0.23 kW=1 PF=0.95
New Load.LOAD382 Phases=1 Bus1=31357.2 kV=0.23 kW=1 PF=0.95
New Load.LOAD383 Phases=1 Bus1=31374.3 kV=0.23 kW=1 PF=0.95
New Load.LOAD384 Phases=1 Bus1=31389.2 kV=0.23 kW=1 PF=0.95
New Load.LOAD385 Phases=1 Bus1=31390.1 kV=0.23 kW=1 PF=0.95
New Load.LOAD386 Phases=1 Bus1=31392.2 kV=0.23 kW=1 PF=0.95
New Load.LOAD387 Phases=1 Bus1=31409.3 kV=0.23 kW=1 PF=0.95
New Load.LOAD388 Phases=1 Bus1=31420.1 kV=0.23 kW=1 PF=0.95
New Load.LOAD389 Phases=1 Bus1=31424.1 kV=0.23 kW=1 PF=0.95
New Load.LOAD390 Phases=1 Bus1=31441.3 kV=0.23 kW=1 PF=0.95
New Load.LOAD391 Phases=1 Bus1=31446.3 kV=0.23 kW=1 PF=0.95
New Load.LOAD392 Phases=1 Bus1=31464.3 kV=0.23 kW=1 PF=0.95
New Load.LOAD393 Phases=1 Bus1=31488.2 kV=0.23 kW=1 PF=0.95
New Load.LOAD394 Phases=1 Bus1=31505.3 kV=0.23 kW=1 PF=0.95
New Load.LOAD395 Phases=1 Bus1=31513.1 kV=0.23 kW=1 PF=0.95
New Load.LOAD396 Phases=1 Bus1=31518.1 kV=0.23 kW=1 PF=0.95
New Load.LOAD397 Phases=1 Bus1=31547.1 kV=0.23 kW=1 PF=0.95
New Load.LOAD398 Phases=1 Bus1=31563.3 kV=0.23 kW=1 PF=0.95
New Load.LOAD399 Phases=1 Bus1=31567.2 kV=0.23 kW=1 PF=0.95
New Load.LOAD3100 Phases=1 Bus1=31588.1 kV=0.23 kW=1 PF=0.95
New Load.LOAD3101 Phases=1 Bus1=31594.3 kV=0.23 kW=1 PF=0.95
New Load.LOAD3102 Phases=1 Bus1=31598.2 kV=0.23 kW=1 PF=0.95
New Load.LOAD3103 Phases=1 Bus1=31619.1 kV=0.23 kW=1 PF=0.95
New Load.LOAD3104 Phases=1 Bus1=31627.1 kV=0.23 kW=1 PF=0.95
New Load.LOAD3105 Phases=1 Bus1=31631.1 kV=0.23 kW=1 PF=0.95
New Load.LOAD3106 Phases=1 Bus1=31666.3 kV=0.23 kW=1 PF=0.95
New Load.LOAD3107 Phases=1 Bus1=31684.3 kV=0.23 kW=1 PF=0.95
New Load.LOAD3108 Phases=1 Bus1=31711.1 kV=0.23 kW=1 PF=0.95
New Load.LOAD3109 Phases=1 Bus1=31733.3 kV=0.23 kW=1 PF=0.95
New Load.LOAD3110 Phases=1 Bus1=31743.1 kV=0.23 kW=1 PF=0.95
New Load.LOAD3111 Phases=1 Bus1=31744.1 kV=0.23 kW=1 PF=0.95
New Load.LOAD3112 Phases=1 Bus1=31762.1 kV=0.23 kW=1 PF=0.95
New Load.LOAD3113 Phases=1 Bus1=31763.2 kV=0.23 kW=1 PF=0.95
New Load.LOAD3114 Phases=1 Bus1=31764.3 kV=0.23 kW=1 PF=0.95
New Load.LOAD3115 Phases=1 Bus1=31800.3 kV=0.23 kW=1 PF=0.95
New Load.LOAD3116 Phases=1 Bus1=31819.1 kV=0.23 kW=1 PF=0.95
New Load.LOAD3117 Phases=1 Bus1=31885.1 kV=0.23 kW=1 PF=0.95
New Load.LOAD3118 Phases=1 Bus1=31911.3 kV=0.23 kW=1 PF=0.95
New Load.LOAD3119 Phases=1 Bus1=31993.2 kV=0.23 kW=1 PF=0.95
New Load.LOAD3120 Phases=1 Bus1=32010.3 kV=0.23 kW=1 PF=0.95
New Load.LOAD3121 Phases=1 Bus1=32023.2 kV=0.23 kW=1 PF=0.95
New Load.LOAD3122 Phases=1 Bus1=32043.1 kV=0.23 kW=1 PF=0.95
New Load.LOAD3123 Phases=1 Bus1=32059.3 kV=0.23 kW=1 PF=0.95
New Load.LOAD3124 Phases=1 Bus1=32064.3 kV=0.23 kW=1 PF=0.95
New Load.LOAD3125 Phases=1 Bus1=32092.2 kV=0.23 kW=1 PF=0.95
New Load.LOAD3126 Phases=1 Bus1=32176.3 kV=0.23 kW=1 PF=0.95
New Load.LOAD3127 Phases=1 Bus1=32199.1 kV=0.23 kW=1 PF=0.95
New Load.LOAD3128 Phases=1 Bus1=32203.3 kV=0.23 kW=1 PF=0.95
New Load.LOAD3129 Phases=1 Bus1=32227.2 kV=0.23 kW=1 PF=0.95
New Load.LOAD3130 Phases=1 Bus1=32230.3 kV=0.23 kW=1 PF=0.95
New Load.LOAD3131 Phases=1 Bus1=32232.1 kV=0.23 kW=1 PF=0.95
New Load.LOAD3132 Phases=1 Bus1=32237.2 kV=0.23 kW=1 PF=0.95
New Load.LOAD3133 Phases=1 Bus1=32249.2 kV=0.23 kW=1 PF=0.95
New Load.LOAD3134 Phases=1 Bus1=32313.2 kV=0.23 kW=1 PF=0.95
New Load.LOAD3135 Phases=1 Bus1=32349.2 kV=0.23 kW=1 PF=0.95
New Load.LOAD3136 Phases=1 Bus1=32402.2 kV=0.23 kW=1 PF=0.95
New Load.LOAD3137 Phases=1 Bus1=32435.3 kV=0.23 kW=1 PF=0.95
New Load.LOAD3138 Phases=1 Bus1=32466.1 kV=0.23 kW=1 PF=0.95
New Load.LOAD3139 Phases=1 Bus1=32489.2 kV=0.23 kW=1 PF=0.95
New Load.LOAD3140 Phases=1 Bus1=32501.3 kV=0.23 kW=1 PF=0.95
New Load.LOAD3141 Phases=1 Bus1=32521.1 kV=0.23 kW=1 PF=0.95
New Load.LOAD3142 Phases=1 Bus1=32548.2 kV=0.23 kW=1 PF=0.95
New Load.LOAD3143 Phases=1 Bus1=32555.3 kV=0.23 kW=1 PF=0.95
New Load.LOAD3144 Phases=1 Bus1=32587.1 kV=0.23 kW=1 PF=0.95
New Load.LOAD3145 Phases=1 Bus1=32621.2 kV=0.23 kW=1 PF=0.95
New Load.LOAD3146 Phases=1 Bus1=32643.3 kV=0.23 kW=1 PF=0.95
New Load.LOAD3147 Phases=1 Bus1=32647.3 kV=0.23 kW=1 PF=0.95
New Load.LOAD3148 Phases=1 Bus1=32721.1 kV=0.23 kW=1 PF=0.95
New Load.LOAD3149 Phases=1 Bus1=32752.3 kV=0.23 kW=1 PF=0.95
New Load.LOAD3150 Phases=1 Bus1=32816.2 kV=0.23 kW=1 PF=0.95
New Load.LOAD3151 Phases=1 Bus1=32826.1 kV=0.23 kW=1 PF=0.95
New Load.LOAD3152 Phases=1 Bus1=32876.1 kV=0.23 kW=1 PF=0.95
New Load.LOAD3153 Phases=1 Bus1=32884.2 kV=0.23 kW=1 PF=0.95
New Load.LOAD3154 Phases=1 Bus1=32888.3 kV=0.23 kW=1 PF=0.95
New Load.LOAD3155 Phases=1 Bus1=32900.3 kV=0.23 kW=1 PF=0.95
New Load.LOAD3156 Phases=1 Bus1=32902.1 kV=0.23 kW=1 PF=0.95
New Load.LOAD41 Phases=1 Bus1=468.1 kV=0.23 kW=1 PF=0.95
New Load.LOAD42 Phases=1 Bus1=476.1 kV=0.23 kW=1 PF=0.95
New Load.LOAD43 Phases=1 Bus1=4142.2 kV=0.23 kW=1 PF=0.95
New Load.LOAD44 Phases=1 Bus1=4144.2 kV=0.23 kW=1 PF=0.95
New Load.LOAD45 Phases=1 Bus1=4150.3 kV=0.23 kW=1 PF=0.95
New Load.LOAD46 Phases=1 Bus1=4174.2 kV=0.23 kW=1 PF=0.95
New Load.LOAD47 Phases=1 Bus1=4195.3 kV=0.23 kW=1 PF=0.95
New Load.LOAD48 Phases=1 Bus1=4199.1 kV=0.23 kW=1 PF=0.95
New Load.LOAD49 Phases=1 Bus1=4204.3 kV=0.23 kW=1 PF=0.95
New Load.LOAD410 Phases=1 Bus1=4205.1 kV=0.23 kW=1 PF=0.95
New Load.LOAD411 Phases=1 Bus1=4235.3 kV=0.23 kW=1 PF=0.95
New Load.LOAD412 Phases=1 Bus1=4248.2 kV=0.23 kW=1 PF=0.95
New Load.LOAD413 Phases=1 Bus1=4255.1 kV=0.23 kW=1 PF=0.95
New Load.LOAD414 Phases=1 Bus1=4277.3 kV=0.23 kW=1 PF=0.95
New Load.LOAD415 Phases=1 Bus1=4326.1 kV=0.23 kW=1 PF=0.95
New Load.LOAD416 Phases=1 Bus1=4329.1 kV=0.23 kW=1 PF=0.95
New Load.LOAD417 Phases=1 Bus1=4374.2 kV=0.23 kW=1 PF=0.95
New Load.LOAD418 Phases=1 Bus1=4387.2 kV=0.23 kW=1 PF=0.95
New Load.LOAD419 Phases=1 Bus1=4394.3 kV=0.23 kW=1 PF=0.95
New Load.LOAD420 Phases=1 Bus1=4399.3 kV=0.23 kW=1 PF=0.95
New Load.LOAD421 Phases=1 Bus1=4400.3 kV=0.23 kW=1 PF=0.95
New Load.LOAD422 Phases=1 Bus1=4405.1 kV=0.23 kW=1 PF=0.95
New Load.LOAD423 Phases=1 Bus1=4415.1 kV=0.23 kW=1 PF=0.95
New Load.LOAD424 Phases=1 Bus1=4421.3 kV=0.23 kW=1 PF=0.95
New Load.LOAD425 Phases=1 Bus1=4425.2 kV=0.23 kW=1 PF=0.95
New Load.LOAD426 Phases=1 Bus1=4431.1 kV=0.23 kW=1 PF=0.95
New Load.LOAD427 Phases=1 Bus1=4433.2 kV=0.23 kW=1 PF=0.95
New Load.LOAD428 Phases=1 Bus1=4440.2 kV=0.23 kW=1 PF=0.95
New Load.LOAD429 Phases=1 Bus1=4445.1 kV=0.23 kW=1 PF=0.95
New Load.LOAD430 Phases=1 Bus1=4448.1 kV=0.23 kW=1 PF=0.95
New Load.LOAD51 Phases=1 Bus1=548.1 kV=0.23 kW=1 PF=0.95
New Load.LOAD52 Phases=1 Bus1=553.2 kV=0.23 kW=1 PF=0.95
New Load.LOAD53 Phases=1 Bus1=5251.3 kV=0.23 kW=1 PF=0.95
New Load.LOAD54 Phases=1 Bus1=5262.1 kV=0.23 kW=1 PF=0.95
New Load.LOAD55 Phases=1 Bus1=5273.1 kV=0.23 kW=1 PF=0.95
New Load.LOAD56 Phases=1 Bus1=5280.2 kV=0.23 kW=1 PF=0.95
New Load.LOAD57 Phases=1 Bus1=5284.1 kV=0.23 kW=1 PF=0.95
New Load.LOAD58 Phases=1 Bus1=5315.3 kV=0.23 kW=1 PF=0.95
New Load.LOAD59 Phases=1 Bus1=5325.3 kV=0.23 kW=1 PF=0.95
New Load.LOAD510 Phases=1 Bus1=5347.3 kV=0.23 kW=1 PF=0.95
New Load.LOAD511 Phases=1 Bus1=5360.2 kV=0.23 kW=1 PF=0.95
New Load.LOAD512 Phases=1 Bus1=5377.3 kV=0.23 kW=1 PF=0.95
New Load.LOAD513 Phases=1 Bus1=5394.3 kV=0.23 kW=1 PF=0.95
New Load.LOAD514 Phases=1 Bus1=5516.3 kV=0.23 kW=1 PF=0.95
New Load.LOAD515 Phases=1 Bus1=5538.1 kV=0.23 kW=1 PF=0.95
New Load.LOAD516 Phases=1 Bus1=5551.2 kV=0.23 kW=1 PF=0.95
New Load.LOAD517 Phases=1 Bus1=5597.1 kV=0.23 kW=1 PF=0.95
New Load.LOAD518 Phases=1 Bus1=5615.2 kV=0.23 kW=1 PF=0.95
New Load.LOAD519 Phases=1 Bus1=5621.1 kV=0.23 kW=1 PF=0.95
New Load.LOAD520 Phases=1 Bus1=5645.1 kV=0.23 kW=1 PF=0.95
New Load.LOAD521 Phases=1 Bus1=5663.2 kV=0.23 kW=1 PF=0.95
New Load.LOAD522 Phases=1 Bus1=5667.1 kV=0.23 kW=1 PF=0.95
New Load.LOAD523 Phases=1 Bus1=5676.2 kV=0.23 kW=1 PF=0.95
New Load.LOAD524 Phases=1 Bus1=5688.1 kV=0.23 kW=1 PF=0.95
New Load.LOAD525 Phases=1 Bus1=5707.3 kV=0.23 kW=1 PF=0.95
New Load.LOAD526 Phases=1 Bus1=5734.3 kV=0.23 kW=1 PF=0.95
New Load.LOAD527 Phases=1 Bus1=5741.2 kV=0.23 kW=1 PF=0.95
New Load.LOAD528 Phases=1 Bus1=5742.1 kV=0.23 kW=1 PF=0.95
New Load.LOAD529 Phases=1 Bus1=5743.2 kV=0.23 kW=1 PF=0.95
New Load.LOAD530 Phases=1 Bus1=5744.2 kV=0.23 kW=1 PF=0.95
New Load.LOAD531 Phases=1 Bus1=5747.1 kV=0.23 kW=1 PF=0.95
New Load.LOAD532 Phases=1 Bus1=5759.3 kV=0.23 kW=1 PF=0.95
New Load.LOAD533 Phases=1 Bus1=5776.1 kV=0.23 kW=1 PF=0.95
New Load.LOAD534 Phases=1 Bus1=5779.1 kV=0.23 kW=1 PF=0.95
New Load.LOAD535 Phases=1 Bus1=5780.1 kV=0.23 kW=1 PF=0.95
New Load.LOAD536 Phases=1 Bus1=5820.2 kV=0.23 kW=1 PF=0.95
New Load.LOAD537 Phases=1 Bus1=5918.1 kV=0.23 kW=1 PF=0.95
New Load.LOAD538 Phases=1 Bus1=5919.1 kV=0.23 kW=1 PF=0.95
New Load.LOAD539 Phases=1 Bus1=5940.3 kV=0.23 kW=1 PF=0.95
New Load.LOAD540 Phases=1 Bus1=5967.2 kV=0.23 kW=1 PF=0.95
New Load.LOAD541 Phases=1 Bus1=51019.1 kV=0.23 kW=1 PF=0.95
New Load.LOAD542 Phases=1 Bus1=51027.1 kV=0.23 kW=1 PF=0.95
New Load.LOAD543 Phases=1 Bus1=51066.2 kV=0.23 kW=1 PF=0.95
New Load.LOAD544 Phases=1 Bus1=51091.1 kV=0.23 kW=1 PF=0.95
New Load.LOAD545 Phases=1 Bus1=51098.2 kV=0.23 kW=1 PF=0.95
New Load.LOAD546 Phases=1 Bus1=51108.3 kV=0.23 kW=1 PF=0.95
New Load.LOAD547 Phases=1 Bus1=51132.2 kV=0.23 kW=1 PF=0.95
New Load.LOAD548 Phases=1 Bus1=51160.1 kV=0.23 kW=1 PF=0.95
New Load.LOAD549 Phases=1 Bus1=51173.2 kV=0.23 kW=1 PF=0.95
New Load.LOAD61 Phases=1 Bus1=659.1 kV=0.23 kW=1 PF=0.95
New Load.LOAD62 Phases=1 Bus1=687.1 kV=0.23 kW=1 PF=0.95
New Load.LOAD63 Phases=1 Bus1=6114.2 kV=0.23 kW=1 PF=0.95
New Load.LOAD64 Phases=1 Bus1=6128.3 kV=0.23 kW=1 PF=0.95
New Load.LOAD65 Phases=1 Bus1=6156.1 kV=0.23 kW=1 PF=0.95
New Load.LOAD66 Phases=1 Bus1=6189.2 kV=0.23 kW=1 PF=0.95
New Load.LOAD67 Phases=1 Bus1=6194.2 kV=0.23 kW=1 PF=0.95
New Load.LOAD68 Phases=1 Bus1=6213.1 kV=0.23 kW=1 PF=0.95
New Load.LOAD69 Phases=1 Bus1=6216.1 kV=0.23 kW=1 PF=0.95
New Load.LOAD610 Phases=1 Bus1=6233.2 kV=0.23 kW=1 PF=0.95
New Load.LOAD611 Phases=1 Bus1=6235.3 kV=0.23 kW=1 PF=0.95
New Load.LOAD612 Phases=1 Bus1=6263.1 kV=0.23 kW=1 PF=0.95
New Load.LOAD613 Phases=1 Bus1=6292.3 kV=0.23 kW=1 PF=0.95
New Load.LOAD614 Phases=1 Bus1=6321.1 kV=0.23 kW=1 PF=0.95
New Load.LOAD615 Phases=1 Bus1=6333.1 kV=0.23 kW=1 PF=0.95
New Load.LOAD616 Phases=1 Bus1=6343.1 kV=0.23 kW=1 PF=0.95
New Load.LOAD617 Phases=1 Bus1=6347.1 kV=0.23 kW=1 PF=0.95
New Load.LOAD71 Phases=1 Bus1=757.1 kV=0.23 kW=1 PF=0.95
New Load.LOAD72 Phases=1 Bus1=760.2 kV=0.23 kW=1 PF=0.95
New Load.LOAD73 Phases=1 Bus1=763.3 kV=0.23 kW=1 PF=0.95
New Load.LOAD74 Phases=1 Bus1=769.1 kV=0.23 kW=1 PF=0.95
New Load.LOAD75 Phases=1 Bus1=777.3 kV=0.23 kW=1 PF=0.95
New Load.LOAD76 Phases=1 Bus1=779.1 kV=0.23 kW=1 PF=0.95
New Load.LOAD77 Phases=1 Bus1=792.2 kV=0.23 kW=1 PF=0.95
New Load.LOAD78 Phases=1 Bus1=7103.3 kV=0.23 kW=1 PF=0.95
New Load.LOAD79 Phases=1 Bus1=7116.1 kV=0.23 kW=1 PF=0.95
New Load.LOAD710 Phases=1 Bus1=7129.1 kV=0.23 kW=1 PF=0.95
New Load.LOAD711 Phases=1 Bus1=7193.1 kV=0.23 kW=1 PF=0.95
New Load.LOAD712 Phases=1 Bus1=7214.2 kV=0.23 kW=1 PF=0.95
New Load.LOAD713 Phases=1 Bus1=7221.3 kV=0.23 kW=1 PF=0.95
New Load.LOAD714 Phases=1 Bus1=7230.2 kV=0.23 kW=1 PF=0.95
New Load.LOAD715 Phases=1 Bus1=7243.1 kV=0.23 kW=1 PF=0.95
New Load.LOAD716 Phases=1 Bus1=7251.1 kV=0.23 kW=1 PF=0.95
New Load.LOAD717 Phases=1 Bus1=7267.2 kV=0.23 kW=1 PF=0.95
New Load.LOAD718 Phases=1 Bus1=7275.3 kV=0.23 kW=1 PF=0.95
New Load.LOAD719 Phases=1 Bus1=7287.3 kV=0.23 kW=1 PF=0.95
New Load.LOAD720 Phases=1 Bus1=7297.1 kV=0.23 kW=1 PF=0.95
New Load.LOAD721 Phases=1 Bus1=7303.2 kV=0.23 kW=1 PF=0.95
New Load.LOAD722 Phases=1 Bus1=7309.3 kV=0.23 kW=1 PF=0.95
New Load.LOAD723 Phases=1 Bus1=7313.1 kV=0.23 kW=1 PF=0.95
New Load.LOAD81 Phases=1 Bus1=848.3 kV=0.23 kW=1 PF=0.95
New Load.LOAD82 Phases=1 Bus1=855.1 kV=0.23 kW=1 PF=0.95
New Load.LOAD83 Phases=1 Bus1=8100.1 kV=0.23 kW=1 PF=0.95
New Load.LOAD84 Phases=1 Bus1=8111.2 kV=0.23 kW=1 PF=0.95
New Load.LOAD85 Phases=1 Bus1=8120.3 kV=0.23 kW=1 PF=0.95
New Load.LOAD86 Phases=1 Bus1=8125.2 kV=0.23 kW=1 PF=0.95
New Load.LOAD87 Phases=1 Bus1=8148.1 kV=0.23 kW=1 PF=0.95
New Load.LOAD88 Phases=1 Bus1=8150.1 kV=0.23 kW=1 PF=0.95
New Load.LOAD89 Phases=1 Bus1=8161.1 kV=0.23 kW=1 PF=0.95
New Load.LOAD810 Phases=1 Bus1=8164.3 kV=0.23 kW=1 PF=0.95
New Load.LOAD811 Phases=1 Bus1=8171.1 kV=0.23 kW=1 PF=0.95
New Load.LOAD812 Phases=1 Bus1=8178.1 kV=0.23 kW=1 PF=0.95
New Load.LOAD813 Phases=1 Bus1=8190.1 kV=0.23 kW=1 PF=0.95
New Load.LOAD814 Phases=1 Bus1=8193.2 kV=0.23 kW=1 PF=0.95
New Load.LOAD815 Phases=1 Bus1=8201.2 kV=0.23 kW=1 PF=0.95
New Load.LOAD816 Phases=1 Bus1=8204.3 kV=0.23 kW=1 PF=0.95
New Load.LOAD817 Phases=1 Bus1=8232.3 kV=0.23 kW=1 PF=0.95
New Load.LOAD818 Phases=1 Bus1=8245.1 kV=0.23 kW=1 PF=0.95
New Load.LOAD819 Phases=1 Bus1=8261.3 kV=0.23 kW=1 PF=0.95
New Load.LOAD820 Phases=1 Bus1=8277.2 kV=0.23 kW=1 PF=0.95
New Load.LOAD821 Phases=1 Bus1=8278.1 kV=0.23 kW=1 PF=0.95
New Load.LOAD822 Phases=1 Bus1=8308.1 kV=0.23 kW=1 PF=0.95
New Load.LOAD823 Phases=1 Bus1=8315.2 kV=0.23 kW=1 PF=0.95
New Load.LOAD824 Phases=1 Bus1=8326.3 kV=0.23 kW=1 PF=0.95
New Load.LOAD825 Phases=1 Bus1=8349.1 kV=0.23 kW=1 PF=0.95
New Load.LOAD826 Phases=1 Bus1=8355.2 kV=0.23 kW=1 PF=0.95
New Load.LOAD827 Phases=1 Bus1=8361.3 kV=0.23 kW=1 PF=0.95
New Load.LOAD828 Phases=1 Bus1=8366.1 kV=0.23 kW=1 PF=0.95
New Load.LOAD829 Phases=1 Bus1=8383.2 kV=0.23 kW=1 PF=0.95
New Load.LOAD830 Phases=1 Bus1=8389.2 kV=0.23 kW=1 PF=0.95
New Load.LOAD831 Phases=1 Bus1=8411.1 kV=0.23 kW=1 PF=0.95
New Load.LOAD832 Phases=1 Bus1=8418.3 kV=0.23 kW=1 PF=0.95
New Load.LOAD833 Phases=1 Bus1=8430.2 kV=0.23 kW=1 PF=0.95
New Load.LOAD834 Phases=1 Bus1=8434.3 kV=0.23 kW=1 PF=0.95
New Load.LOAD835 Phases=1 Bus1=8438.1 kV=0.23 kW=1 PF=0.95
New Load.LOAD836 Phases=1 Bus1=8446.2 kV=0.23 kW=1 PF=0.95
New Load.LOAD837 Phases=1 Bus1=8454.1 kV=0.23 kW=1 PF=0.95
New Load.LOAD838 Phases=1 Bus1=8461.3 kV=0.23 kW=1 PF=0.95
